LTspice 24.1.10 for Windows
Circuit: C:\Users\melis\OneDrive\Desktop\Proyecto2Analogicos\Tarea4.net
Start Time: Mon Dec  1 15:36:34 2025
solver = Normal
Maximum thread count: 8
tnom = 27
temp = 27
method = trap
Direct Newton iteration failed to find .op point.  (Use ".option noopiter" to skip.)
Starting Gmin stepping
Gmin = 10
Gmin = 1.07374
vernier = 0.5
vernier = 0.25
vernier = 0.125
vernier = 0.0625
Gmin = 1.08884
vernier = 0.03125
vernier = 0.015625
Gmin = 1.03122
vernier = 0.0078125
vernier = 0.0104167
vernier = 0.00520833
Gmin = 1.01988
vernier = 0.00260417
vernier = 0.00347222
Gmin = 1.01305
vernier = 0.00173611
vernier = 0.00231481
vernier = 0.00115741
Gmin = 1.01085
vernier = 0.00154321
vernier = 0.000771604
Gmin = 1.00871
vernier = 0.00102881
vernier = 0.000514403
Gmin = 1.00715
vernier = 0.00068587
vernier = 0.000514403
Gmin = 1.0059
vernier = 0.00068587
vernier = 0.000514402
Gmin = 0
Gmin stepping failed

Starting source stepping with srcstepmethod=0
Source Step = 3.0303%
Source Step = 12.1271%
Starting source stepping with srcstepmethod=1
Source Step = 3.0303%
Source Step = 19.3182%
Source Step = 21.2121%
Source Step = 23.1061%
Source Step = 25%
Source Step = 26.8939%
vernier = 0.09375
Source Step = 28.8826%
Source Step = 31.7235%
Source Step = 34.5644%
Source Step = 37.4053%
Source Step = 40.2462%
Source Step = 43.0871%
vernier = 0.140625
Source Step = 47.3485%
Source Step = 51.6098%
Source Step = 55.8712%
Source Step = 60.1326%
Source Step = 64.3939%
vernier = 0.210938
Source Step = 70.5729%
Source Step = 76.965%
Source Step = 83.357%
Source Step = 89.7491%
Source Step = 96.1411%
vernier = 0.316406
Source Step = 100%
Source Step = 100%
Source Step = 100%
Source stepping succeeded in finding the operating point.

Total elapsed time: 5.070 seconds.

Files loaded:
C:\Users\melis\OneDrive\Desktop\Proyecto2Analogicos\Tarea4.net
C:\Users\melis\AppData\Local\LTspice\lib\sub\ADG2404.sub
C:\Users\melis\AppData\Local\LTspice\lib\sub\LTC.lib
C:\Users\melis\AppData\Local\LTspice\lib\sub\NE555.sub

