<<<<<<< HEAD
LTspice 24.0.12 for Windows
Circuit: * C:\Users\andre\OneDrive\Documents\GitHub\Proyecto2Analogicos\Tarea4.asc
Start Time: Tue Dec  2 20:58:32 2025
=======
LTspice 24.1.10 for Windows
Circuit: C:\Users\melis\OneDrive\Desktop\Proyecto2Analogicos\Tarea4.net
Start Time: Mon Dec  1 17:00:55 2025
>>>>>>> 9875e16e58b457c8b94f0f5b4074c5760bb0d96b
solver = Normal
Maximum thread count: 16
tnom = 27
temp = 27
method = modified trap
WARNING: Less than two connections to node nc_01.  This node is used by s:u1:1.
Direct Newton iteration failed to find .op point.  (Use ".option noopiter" to skip.)
Starting Gmin stepping
Gmin = 10
Gmin = 1.07374
vernier = 0.5
vernier = 0.25
vernier = 0.125
vernier = 0.0625
Gmin = 1.08884
vernier = 0.03125
vernier = 0.015625
Gmin = 1.03122
vernier = 0.0078125
vernier = 0.0104167
vernier = 0.00520833
Gmin = 1.01988
vernier = 0.00260417
vernier = 0.00347222
Gmin = 1.01305
vernier = 0.00173611
vernier = 0.00231481
vernier = 0.00115741
Gmin = 1.01085
vernier = 0.00154321
vernier = 0.000771604
Gmin = 1.00871
vernier = 0.00102881
vernier = 0.000514403
Gmin = 1.00715
vernier = 0.00068587
vernier = 0.000514403
Gmin = 1.0059
vernier = 0.00068587
vernier = 0.000514402
Gmin = 0
Gmin stepping failed

Starting source stepping with srcstepmethod=0
Source Step = 3.0303%
Source Step = 12.1271%
Starting source stepping with srcstepmethod=1
Source Step = 3.0303%
Source stepping failed

<<<<<<< HEAD
Pseudo Transient failed in finding the operating point at 6.1099 ms.
Trouble finding operating point....skipping operating point for Transient analysis.
Changing Tseed to 9.76562e-08
Changing Tseed to 9.76562e-10
Changing Tseed to 9.76562e-07
Changing Tseed to 9.76562e-11
Changing Tseed to 9.76562e-06
Changing Tseed to 9.76562e-12
Changing Tseed to 9.76562e-05
Changing Tseed to 9.76562e-13
Changing Tseed to 0.000976562
Changing Tseed to 9.76562e-14
Heightened Def Con from 0.0665708 to 0.0665708
Total elapsed time: 15.970 seconds.
=======
Total elapsed time: 7.766 seconds.

Files loaded:
C:\Users\melis\OneDrive\Desktop\Proyecto2Analogicos\Tarea4.net
C:\Users\melis\AppData\Local\LTspice\lib\cmp\standard.dio
C:\Users\melis\AppData\Local\LTspice\lib\sub\ADG2404.sub
C:\Users\melis\AppData\Local\LTspice\lib\sub\LTC.lib
C:\Users\melis\AppData\Local\LTspice\lib\sub\NE555.sub
>>>>>>> 9875e16e58b457c8b94f0f5b4074c5760bb0d96b

