LTspice 24.0.12 for Windows
Circuit: * C:\Users\andre\Downloads\Proyecto2\Tarea4.asc
Start Time: Sat Nov 29 14:25:26 2025
solver = Normal
Maximum thread count: 16
tnom = 27
temp = 27
method = modified trap
WARNING: Less than two connections to node nc_01.  This node is used by s:u1:1.
Direct Newton iteration for .op point succeeded.
Total elapsed time: 5.717 seconds.

